Version 4.1
SHEET 1 2416 932
WIRE -432 -816 -816 -816
WIRE 1568 -816 -432 -816
WIRE 1792 -816 1568 -816
WIRE -432 -704 -704 -704
WIRE 640 -704 -432 -704
WIRE 864 -704 640 -704
WIRE 1056 -704 864 -704
WIRE 1168 -704 1056 -704
WIRE 1792 -656 1792 -816
WIRE 1568 -624 1568 -816
WIRE 1792 -528 1792 -576
WIRE 1904 -512 1840 -512
WIRE 1920 -512 1904 -512
WIRE 1920 -480 1920 -512
WIRE 1168 -464 1168 -704
WIRE 1856 -464 1840 -464
WIRE 1344 -448 1200 -448
WIRE 1472 -448 1424 -448
WIRE 704 -432 560 -432
WIRE 1136 -432 704 -432
WIRE 1264 -416 1200 -416
WIRE 1264 -400 1264 -416
WIRE 560 -384 560 -432
WIRE 1168 -368 1168 -400
WIRE 1920 -368 1920 -400
WIRE 1264 -288 1264 -320
WIRE 560 -208 560 -304
WIRE 1856 -160 1856 -464
WIRE 1088 -144 992 -144
WIRE 1200 -144 1168 -144
WIRE 1232 -144 1200 -144
WIRE 1360 -144 1312 -144
WIRE 1472 -128 1472 -448
WIRE 1568 -128 1568 -544
WIRE 1568 -128 1472 -128
WIRE 1712 -128 1568 -128
WIRE 1792 -128 1792 -448
WIRE 1792 -128 1712 -128
WIRE 1360 -112 1360 -144
WIRE 1056 -80 1056 -704
WIRE 1200 -64 1200 -144
WIRE 1200 -64 1088 -64
WIRE 560 -48 560 -144
WIRE 896 -48 560 -48
WIRE 992 -48 992 -144
WIRE 992 -48 960 -48
WIRE 1024 -48 992 -48
WIRE 1232 -32 1088 -32
WIRE 1472 -32 1472 -128
WIRE 1472 -32 1312 -32
WIRE 1472 0 1472 -32
WIRE 1744 0 1472 0
WIRE 1472 32 1472 0
WIRE 1056 48 1056 -16
WIRE 1744 48 1744 0
WIRE 640 80 640 -704
WIRE 560 96 560 -48
WIRE 576 96 560 96
WIRE 608 96 576 96
WIRE 736 112 672 112
WIRE 816 112 736 112
WIRE 912 112 816 112
WIRE 1152 112 992 112
WIRE 1360 112 1152 112
WIRE 1424 112 1360 112
WIRE -576 128 -608 128
WIRE -528 128 -576 128
WIRE 608 128 -448 128
WIRE -608 144 -608 128
WIRE 1360 144 1360 112
WIRE 640 176 640 144
WIRE -704 192 -704 -704
WIRE 1472 192 1472 128
WIRE 1744 192 1744 128
WIRE 1744 192 1472 192
WIRE -816 240 -816 -816
WIRE -608 240 -608 224
WIRE 560 240 560 96
WIRE 608 240 560 240
WIRE 736 240 736 112
WIRE 736 240 672 240
WIRE 1360 240 1360 208
WIRE -704 288 -704 272
WIRE 560 336 560 240
WIRE 608 336 560 336
WIRE 704 336 672 336
WIRE 816 336 816 112
WIRE 816 336 784 336
WIRE -816 352 -816 320
WIRE 864 400 864 -704
WIRE 976 416 896 416
WIRE 560 432 560 336
WIRE 576 432 560 432
WIRE 672 432 656 432
WIRE 816 432 672 432
WIRE 832 432 816 432
WIRE 1056 448 896 448
WIRE 1088 448 1056 448
WIRE 1168 448 1088 448
WIRE 1296 448 1248 448
WIRE 1424 448 1392 448
WIRE 1472 448 1472 192
WIRE 1472 448 1424 448
WIRE 864 480 864 464
WIRE 1088 480 1088 448
WIRE 1296 480 1296 448
WIRE 1392 496 1392 448
WIRE 1392 496 1344 496
WIRE 1472 496 1472 448
WIRE 816 544 816 432
WIRE 848 544 816 544
WIRE 976 544 976 416
WIRE 976 544 928 544
WIRE 1392 544 1344 544
WIRE 1088 576 1088 544
WIRE 1392 592 1392 544
WIRE 1472 608 1472 576
WIRE 816 640 816 544
WIRE 864 640 816 640
WIRE 976 640 976 544
WIRE 976 640 928 640
WIRE 1296 640 1296 560
WIRE 976 688 976 640
WIRE 1296 752 1296 720
WIRE 976 800 976 768
FLAG 1472 608 0
FLAG 640 176 0
FLAG -816 352 0
FLAG -704 288 0
FLAG -608 240 0
FLAG 864 480 0
FLAG 976 800 0
FLAG -432 -816 OUT_P
FLAG -576 128 REF
FLAG 1424 448 SNS
FLAG 1712 -128 OUT_N
FLAG 1856 -160 0
FLAG 1920 -368 0
FLAG 1152 112 G
FLAG 672 432 I
FLAG 1168 -368 0
FLAG 1264 -288 0
FLAG 1264 -416 REF_V
FLAG 704 -432 V
FLAG 576 96 e
FLAG 1360 -112 0
FLAG 1056 48 0
FLAG 1296 752 0
FLAG 1392 592 0
FLAG 1056 448 I_OUT
FLAG -432 -704 VCC
FLAG 1088 576 0
FLAG 1904 -512 SW_CTRL
FLAG 1360 240 0
SYMBOL res 1456 480 R0
SYMATTR InstName R1
SYMATTR Value 0.005
SYMBOL res 1776 -672 R0
SYMATTR InstName R2
SYMATTR Value 0.1
SYMBOL res 1008 96 R90
WINDOW 0 0 56 VBottom 2
WINDOW 3 32 56 VTop 2
SYMATTR InstName R3
SYMATTR Value 10
SYMBOL voltage -816 224 R0
WINDOW 123 0 0 Left 0
WINDOW 39 0 0 Left 0
SYMATTR InstName V1
SYMATTR Value PWL(0 0 1m 2 2m 2 3m 5 5m 5 5.1m 7)
SYMBOL voltage -704 176 R0
WINDOW 123 0 0 Left 0
WINDOW 39 0 0 Left 0
SYMATTR InstName V2
SYMATTR Value 10
SYMBOL voltage -608 128 R0
WINDOW 123 0 0 Left 0
WINDOW 39 0 0 Left 0
SYMATTR InstName V3
SYMATTR Value PWL(0 0 1m 0 1.001m {V_REF} 2m {V_REF} 3.9m {V_REF} 4m 0 4.4m 0 4.5m {V_REF} 6m {V_REF} 6.001m {1.1*V_REF} 6.1m {1.1*V_REF} 6.101m {V_REF})
SYMBOL res 960 672 R0
SYMATTR InstName R4
SYMATTR Value 10k
SYMBOL res 944 528 R90
WINDOW 0 0 56 VBottom 2
WINDOW 3 32 56 VTop 2
SYMATTR InstName R5
SYMATTR Value 110k
SYMBOL res 672 416 R90
WINDOW 0 0 56 VBottom 2
WINDOW 3 32 56 VTop 2
SYMATTR InstName R6
SYMATTR Value {R6}
SYMBOL cap 672 224 R90
WINDOW 0 0 32 VBottom 2
WINDOW 3 32 32 VTop 2
SYMATTR InstName C1
SYMATTR Value {C1}
SYMBOL cap 928 624 R90
WINDOW 0 0 32 VBottom 2
WINDOW 3 32 32 VTop 2
SYMATTR InstName C3
SYMATTR Value 4.7p
SYMBOL sw 1792 -432 R180
SYMATTR InstName S1
SYMATTR Value MySwitch
SYMBOL voltage 1920 -496 R0
WINDOW 123 0 0 Left 0
WINDOW 39 0 0 Left 0
SYMATTR InstName V4
SYMATTR Value PWL(0 5 8m 5 8.001m 0 9m 0 9.002m 5)
SYMBOL res -432 112 R90
WINDOW 0 0 56 VBottom 2
WINDOW 3 32 56 VTop 2
SYMATTR InstName R7
SYMATTR Value 1k
SYMBOL nmos 1424 32 R0
SYMATTR InstName M1
SYMATTR Value SUD40N10-25
SYMBOL Opamps\\LT1211 1168 -496 M0
SYMATTR InstName U3
SYMBOL diode 544 -208 R0
SYMATTR InstName D1
SYMATTR Value 1N4148
SYMBOL voltage 1264 -416 R0
WINDOW 123 0 0 Left 0
WINDOW 39 0 0 Left 0
SYMATTR InstName V6
SYMATTR Value 1
SYMBOL res 1552 -640 R0
SYMATTR InstName R9
SYMATTR Value 10Meg
SYMBOL res 1440 -464 R90
WINDOW 0 0 56 VBottom 2
WINDOW 3 32 56 VTop 2
SYMATTR InstName R8
SYMATTR Value 10k
SYMBOL res 1728 32 R0
SYMATTR InstName R10
SYMATTR Value 100
SYMBOL res 544 -400 R0
SYMATTR InstName R11
SYMATTR Value 2k
SYMBOL res 1328 -48 R90
WINDOW 0 0 56 VBottom 2
WINDOW 3 32 56 VTop 2
SYMATTR InstName R12
SYMATTR Value 10k
SYMBOL res 1184 -160 R90
WINDOW 0 0 56 VBottom 2
WINDOW 3 32 56 VTop 2
SYMATTR InstName R13
SYMATTR Value 0
SYMBOL res 1328 -160 R90
WINDOW 0 0 56 VBottom 2
WINDOW 3 32 56 VTop 2
SYMATTR InstName R14
SYMATTR Value 100k
SYMBOL cap 960 -64 R90
WINDOW 0 0 32 VBottom 2
WINDOW 3 32 32 VTop 2
SYMATTR InstName C2
SYMATTR Value 4.7p
SYMBOL OPAx197 640 112 R0
SYMATTR InstName U1
SYMBOL e 1296 464 M0
SYMATTR InstName E1
SYMATTR Value 8.6667
SYMBOL OPAx197 864 432 M0
SYMATTR InstName U2
SYMBOL OPAx197 1056 -48 M0
SYMATTR InstName U4
SYMBOL res 1264 432 R90
WINDOW 0 0 56 VBottom 2
WINDOW 3 32 56 VTop 2
SYMATTR InstName R15
SYMATTR Value 530
SYMBOL cap 1072 480 R0
SYMATTR InstName C4
SYMATTR Value 1n
SYMBOL voltage 1296 624 R0
WINDOW 123 0 0 Left 0
WINDOW 39 0 0 Left 0
SYMATTR InstName V5
SYMATTR Value PWL(0 0 7m 0 7.001m 10m 7.1m 10m 7.101m 0)
SYMBOL cap 672 320 R90
WINDOW 0 0 32 VBottom 2
WINDOW 3 32 32 VTop 2
SYMATTR InstName C5
SYMATTR Value {C5}
SYMBOL res 800 320 R90
WINDOW 0 0 56 VBottom 2
WINDOW 3 32 56 VTop 2
SYMATTR InstName R16
SYMATTR Value {R16}
SYMBOL cap 1344 144 R0
SYMATTR InstName C6
SYMATTR Value {C6}
TEXT -848 488 Left 2 !.tran 10m
TEXT -840 752 Left 2 !.model MySwitch SW(Ron=1m Roff=1Meg Vt=0.5 Vh=-.1)
TEXT 40 -112 Left 2 !.param R16=table(n, 1, 3g, 2, 3g)
TEXT 40 -88 Left 2 !.param C1=table(n, 1, 1n, 2, 1n)
TEXT 40 -64 Left 2 !.param C5=table(n, 1, 1p, 2, 1p)
TEXT 40 -136 Left 2 !.step param n 1 2 1
TEXT 40 -40 Left 2 !.param R6=table(n, 1, 75k, 2, 7.5k)
TEXT 40 -168 Left 2 !.param V_REF=0.52
TEXT 40 -16 Left 2 !.param C6=table(n, 1, 1p, 2, 100p)
