Version 4
SHEET 1 1804 932
WIRE -112 -544 -496 -544
WIRE 912 -544 -112 -544
WIRE 1136 -544 912 -544
WIRE 64 -480 -384 -480
WIRE 192 -480 64 -480
WIRE 400 -480 192 -480
WIRE 1136 -384 1136 -544
WIRE 912 -352 912 -544
WIRE 1136 -256 1136 -304
WIRE 1264 -240 1184 -240
WIRE 400 -224 400 -480
WIRE 640 -208 432 -208
WIRE 816 -208 720 -208
WIRE 1264 -208 1264 -240
WIRE 128 -192 -16 -192
WIRE 368 -192 128 -192
WIRE 1200 -192 1184 -192
WIRE 496 -176 432 -176
WIRE 1200 -160 1200 -192
WIRE 400 -128 400 -160
WIRE 496 -128 496 -176
WIRE 816 -128 816 -208
WIRE 912 -128 912 -272
WIRE 912 -128 816 -128
WIRE 1056 -128 912 -128
WIRE 1136 -128 1136 -176
WIRE 1136 -128 1056 -128
WIRE 1264 -96 1264 -128
WIRE -16 -80 -16 -192
WIRE 496 -16 496 -48
WIRE 816 32 816 -128
WIRE 64 80 64 -480
WIRE -16 96 -16 -16
WIRE 0 96 -16 96
WIRE 32 96 0 96
WIRE 160 112 96 112
WIRE 224 112 160 112
WIRE 320 112 304 112
WIRE 352 112 320 112
WIRE 768 112 352 112
WIRE -256 128 -288 128
WIRE -208 128 -256 128
WIRE 32 128 -128 128
WIRE -288 144 -288 128
WIRE 320 160 320 112
WIRE 64 176 64 144
WIRE -384 192 -384 -480
WIRE -496 240 -496 -544
WIRE -288 240 -288 224
WIRE -16 240 -16 96
WIRE 32 240 -16 240
WIRE 160 240 160 112
WIRE 160 240 96 240
WIRE 320 272 320 224
WIRE -384 288 -384 272
WIRE -496 352 -496 320
WIRE 192 352 192 -480
WIRE 304 368 224 368
WIRE -16 384 -16 240
WIRE 0 384 -16 384
WIRE 96 384 80 384
WIRE 144 384 96 384
WIRE 160 384 144 384
WIRE 352 400 224 400
WIRE 816 400 816 128
WIRE 816 400 352 400
WIRE 192 432 192 416
WIRE 816 448 816 400
WIRE 144 496 144 384
WIRE 176 496 144 496
WIRE 304 496 304 368
WIRE 304 496 256 496
WIRE 816 560 816 528
WIRE 144 592 144 496
WIRE 192 592 144 592
WIRE 304 592 304 496
WIRE 304 592 256 592
WIRE 304 640 304 592
WIRE 304 784 304 720
WIRE 304 912 304 864
FLAG 816 560 0
FLAG 64 176 0
FLAG -496 352 0
FLAG -384 288 0
FLAG -288 240 0
FLAG 192 432 0
FLAG 304 912 0
FLAG 320 272 0
FLAG -112 -544 VCC
FLAG -256 128 REF
FLAG 352 400 SNS
FLAG 1056 -128 OUT
FLAG 1200 -160 0
FLAG 1264 -96 0
FLAG 352 112 B
FLAG 96 384 I
FLAG 400 -128 0
FLAG 496 -16 0
FLAG 496 -176 REF_V
FLAG 128 -192 V
FLAG 0 96 e
SYMBOL res 800 432 R0
SYMATTR InstName R1
SYMATTR Value 0.01
SYMBOL res 1120 -400 R0
SYMATTR InstName R2
SYMATTR Value 0.1
SYMBOL res 320 96 R90
WINDOW 0 0 56 VBottom 2
WINDOW 3 32 56 VTop 2
SYMATTR InstName R3
SYMATTR Value 1k
SYMBOL voltage -496 224 R0
WINDOW 123 0 0 Left 0
WINDOW 39 0 0 Left 0
SYMATTR InstName V1
SYMATTR Value PWL(0 0 1m 5 5m 5 5.1m 7)
SYMBOL voltage -384 176 R0
WINDOW 123 0 0 Left 0
WINDOW 39 0 0 Left 0
SYMATTR InstName V2
SYMATTR Value 10
SYMBOL voltage -288 128 R0
WINDOW 123 0 0 Left 0
WINDOW 39 0 0 Left 0
SYMATTR InstName V3
SYMATTR Value PWL(0 0 1m 0 2m 1)
SYMBOL res 288 624 R0
SYMATTR InstName R4
SYMATTR Value 1k
SYMBOL res 272 480 R90
WINDOW 0 0 56 VBottom 2
WINDOW 3 32 56 VTop 2
SYMATTR InstName R5
SYMATTR Value 99k
SYMBOL res 96 368 R90
WINDOW 0 0 56 VBottom 2
WINDOW 3 32 56 VTop 2
SYMATTR InstName R6
SYMATTR Value 10k
SYMBOL cap 96 224 R90
WINDOW 0 0 32 VBottom 2
WINDOW 3 32 32 VTop 2
SYMATTR InstName C1
SYMATTR Value 10n
SYMBOL cap 304 160 R0
SYMATTR InstName C2
SYMATTR Value 10p
SYMBOL cap 256 576 R90
WINDOW 0 0 32 VBottom 2
WINDOW 3 32 32 VTop 2
SYMATTR InstName C3
SYMATTR Value 10p
SYMBOL sw 1136 -160 R180
SYMATTR InstName S1
SYMATTR Value MySwitch
SYMBOL voltage 1264 -224 R0
WINDOW 123 0 0 Left 0
WINDOW 39 0 0 Left 0
SYMATTR InstName V4
SYMATTR Value PWL(0 5 7m 5 7.001m 0 9m 0 9.000001m 5)
SYMBOL res -112 112 R90
WINDOW 0 0 56 VBottom 2
WINDOW 3 32 56 VTop 2
SYMATTR InstName R7
SYMATTR Value 1k
SYMBOL nmos 768 32 R0
SYMATTR InstName M1
SYMATTR Value IRFP240
SYMBOL voltage 304 768 R0
WINDOW 123 0 0 Left 0
WINDOW 39 0 0 Left 0
SYMATTR InstName V5
SYMATTR Value 0
SYMBOL Opamps\\LT1211 192 320 M0
SYMATTR InstName U2
SYMBOL Opamps\\LT1211 64 48 R0
SYMATTR InstName U1
SYMBOL Opamps\\LT1211 400 -256 M0
SYMATTR InstName U3
SYMBOL diode -32 -80 R0
SYMATTR InstName D1
SYMBOL voltage 496 -144 R0
WINDOW 123 0 0 Left 0
WINDOW 39 0 0 Left 0
SYMATTR InstName V6
SYMATTR Value 1
SYMBOL res 896 -368 R0
SYMATTR InstName R9
SYMATTR Value 10k
SYMBOL res 736 -224 R90
WINDOW 0 0 56 VBottom 2
WINDOW 3 32 56 VTop 2
SYMATTR InstName R8
SYMATTR Value 10k
TEXT -530 488 Left 2 !.tran 10m
TEXT -520 752 Left 2 !.model MySwitch SW(Ron=.1 Roff=1Meg Vt=0.5 Vh=-.1)
