Version 4.1
SHEET 1 2416 932
WIRE -112 -816 -496 -816
WIRE 1568 -816 -112 -816
WIRE 1792 -816 1568 -816
WIRE -112 -704 -384 -704
WIRE 720 -704 -112 -704
WIRE 848 -704 720 -704
WIRE 1056 -704 848 -704
WIRE 1168 -704 1056 -704
WIRE 1792 -656 1792 -816
WIRE 1568 -624 1568 -816
WIRE 1792 -528 1792 -576
WIRE 1920 -512 1840 -512
WIRE 1920 -480 1920 -512
WIRE 1168 -464 1168 -704
WIRE 1856 -464 1840 -464
WIRE 1344 -448 1200 -448
WIRE 1472 -448 1424 -448
WIRE 784 -432 640 -432
WIRE 1136 -432 784 -432
WIRE 1264 -416 1200 -416
WIRE 1264 -400 1264 -416
WIRE 640 -384 640 -432
WIRE 1168 -368 1168 -400
WIRE 1920 -368 1920 -400
WIRE 1264 -288 1264 -320
WIRE 640 -208 640 -304
WIRE 1856 -160 1856 -464
WIRE 1088 -144 992 -144
WIRE 1200 -144 1168 -144
WIRE 1232 -144 1200 -144
WIRE 1360 -144 1312 -144
WIRE 1472 -128 1472 -448
WIRE 1568 -128 1568 -544
WIRE 1568 -128 1472 -128
WIRE 1712 -128 1568 -128
WIRE 1792 -128 1792 -448
WIRE 1792 -128 1712 -128
WIRE 1360 -112 1360 -144
WIRE 1056 -80 1056 -704
WIRE 1200 -64 1200 -144
WIRE 1200 -64 1088 -64
WIRE 640 -48 640 -144
WIRE 896 -48 640 -48
WIRE 992 -48 992 -144
WIRE 992 -48 960 -48
WIRE 1024 -48 992 -48
WIRE 1232 -32 1088 -32
WIRE 1472 -32 1472 -128
WIRE 1472 -32 1312 -32
WIRE 1472 0 1472 -32
WIRE 1744 0 1472 0
WIRE 1056 16 1056 -16
WIRE 1472 32 1472 0
WIRE 1744 48 1744 0
WIRE 720 80 720 -704
WIRE 640 96 640 -48
WIRE 656 96 640 96
WIRE 688 96 656 96
WIRE 816 112 752 112
WIRE 880 112 816 112
WIRE 1008 112 960 112
WIRE 1424 112 1008 112
WIRE -256 128 -288 128
WIRE -208 128 -256 128
WIRE 688 128 -128 128
WIRE -288 144 -288 128
WIRE 720 176 720 144
WIRE -384 192 -384 -704
WIRE 1472 192 1472 128
WIRE 1744 192 1744 128
WIRE 1744 192 1472 192
WIRE -496 240 -496 -816
WIRE -288 240 -288 224
WIRE 640 240 640 96
WIRE 688 240 640 240
WIRE 816 240 816 112
WIRE 816 240 752 240
WIRE -384 288 -384 272
WIRE -496 352 -496 320
WIRE 848 352 848 -704
WIRE 960 368 880 368
WIRE 640 384 640 240
WIRE 656 384 640 384
WIRE 752 384 736 384
WIRE 800 384 752 384
WIRE 816 384 800 384
WIRE 1056 400 880 400
WIRE 1088 400 1056 400
WIRE 1168 400 1088 400
WIRE 1296 400 1248 400
WIRE 1424 400 1392 400
WIRE 1472 400 1472 192
WIRE 1472 400 1424 400
WIRE 848 432 848 416
WIRE 1088 432 1088 400
WIRE 1296 432 1296 400
WIRE 1392 448 1392 400
WIRE 1392 448 1344 448
WIRE 1472 448 1472 400
WIRE 800 496 800 384
WIRE 832 496 800 496
WIRE 960 496 960 368
WIRE 960 496 912 496
WIRE 1392 496 1344 496
WIRE 1088 528 1088 496
WIRE 1296 544 1296 512
WIRE 1392 544 1392 496
WIRE 1472 560 1472 528
WIRE 800 592 800 496
WIRE 848 592 800 592
WIRE 960 592 960 496
WIRE 960 592 912 592
WIRE 960 640 960 592
WIRE 960 752 960 720
FLAG 1472 560 0
FLAG 720 176 0
FLAG -496 352 0
FLAG -384 288 0
FLAG -288 240 0
FLAG 848 432 0
FLAG 960 752 0
FLAG -112 -816 OUT_P
FLAG -256 128 REF
FLAG 1424 400 SNS
FLAG 1712 -128 OUT_N
FLAG 1856 -160 0
FLAG 1920 -368 0
FLAG 1008 112 G
FLAG 752 384 I
FLAG 1168 -368 0
FLAG 1264 -288 0
FLAG 1264 -416 REF_V
FLAG 784 -432 V
FLAG 656 96 e
FLAG 1360 -112 0
FLAG 1056 16 0
FLAG 1296 544 0
FLAG 1392 544 0
FLAG 1056 400 I_OUT
FLAG -112 -704 VCC
FLAG 1088 528 0
SYMBOL res 1456 432 R0
SYMATTR InstName R1
SYMATTR Value 0.01
SYMBOL res 1776 -672 R0
SYMATTR InstName R2
SYMATTR Value 0.1
SYMBOL res 976 96 R90
WINDOW 0 0 56 VBottom 2
WINDOW 3 32 56 VTop 2
SYMATTR InstName R3
SYMATTR Value 10
SYMBOL voltage -496 224 R0
WINDOW 123 0 0 Left 0
WINDOW 39 0 0 Left 0
SYMATTR InstName V1
SYMATTR Value PWL(0 0 1m 2 2m 2 3m 5 5m 5 5.1m 7)
SYMBOL voltage -384 176 R0
WINDOW 123 0 0 Left 0
WINDOW 39 0 0 Left 0
SYMATTR InstName V2
SYMATTR Value 10
SYMBOL voltage -288 128 R0
WINDOW 123 0 0 Left 0
WINDOW 39 0 0 Left 0
SYMATTR InstName V3
SYMATTR Value PWL(0 0 1m 0 2m 1 3.9m 1 4m 0 4.4m 0 4.5m 1)
SYMBOL res 944 624 R0
SYMATTR InstName R4
SYMATTR Value 1k
SYMBOL res 928 480 R90
WINDOW 0 0 56 VBottom 2
WINDOW 3 32 56 VTop 2
SYMATTR InstName R5
SYMATTR Value 11k
SYMBOL res 752 368 R90
WINDOW 0 0 56 VBottom 2
WINDOW 3 32 56 VTop 2
SYMATTR InstName R6
SYMATTR Value 7.5k
SYMBOL cap 752 224 R90
WINDOW 0 0 32 VBottom 2
WINDOW 3 32 32 VTop 2
SYMATTR InstName C1
SYMATTR Value 1n
SYMBOL cap 912 576 R90
WINDOW 0 0 32 VBottom 2
WINDOW 3 32 32 VTop 2
SYMATTR InstName C3
SYMATTR Value 10p
SYMBOL sw 1792 -432 R180
SYMATTR InstName S1
SYMATTR Value MySwitch
SYMBOL voltage 1920 -496 R0
WINDOW 123 0 0 Left 0
WINDOW 39 0 0 Left 0
SYMATTR InstName V4
SYMATTR Value PWL(0 5 7m 5 7.001m 0 9m 0 9.002m 5)
SYMBOL res -112 112 R90
WINDOW 0 0 56 VBottom 2
WINDOW 3 32 56 VTop 2
SYMATTR InstName R7
SYMATTR Value 1k
SYMBOL nmos 1424 32 R0
SYMATTR InstName M1
SYMATTR Value SUD40N10-25
SYMBOL Opamps\\LT1211 1168 -496 M0
SYMATTR InstName U3
SYMBOL diode 624 -208 R0
SYMATTR InstName D1
SYMATTR Value 1N4148
SYMBOL voltage 1264 -416 R0
WINDOW 123 0 0 Left 0
WINDOW 39 0 0 Left 0
SYMATTR InstName V6
SYMATTR Value 1
SYMBOL res 1552 -640 R0
SYMATTR InstName R9
SYMATTR Value 10Meg
SYMBOL res 1440 -464 R90
WINDOW 0 0 56 VBottom 2
WINDOW 3 32 56 VTop 2
SYMATTR InstName R8
SYMATTR Value 10k
SYMBOL res 1728 32 R0
SYMATTR InstName R10
SYMATTR Value 100
SYMBOL res 624 -400 R0
SYMATTR InstName R11
SYMATTR Value 2k
SYMBOL res 1328 -48 R90
WINDOW 0 0 56 VBottom 2
WINDOW 3 32 56 VTop 2
SYMATTR InstName R12
SYMATTR Value 10k
SYMBOL res 1184 -160 R90
WINDOW 0 0 56 VBottom 2
WINDOW 3 32 56 VTop 2
SYMATTR InstName R13
SYMATTR Value 0
SYMBOL res 1328 -160 R90
WINDOW 0 0 56 VBottom 2
WINDOW 3 32 56 VTop 2
SYMATTR InstName R14
SYMATTR Value 100k
SYMBOL cap 960 -64 R90
WINDOW 0 0 32 VBottom 2
WINDOW 3 32 32 VTop 2
SYMATTR InstName C2
SYMATTR Value 4.7p
SYMBOL OPAx197 720 112 R0
SYMATTR InstName U1
SYMBOL e 1296 416 M0
SYMATTR InstName E1
SYMATTR Value 8.333
SYMBOL OPAx197 848 384 M0
SYMATTR InstName U2
SYMBOL OPAx197 1056 -48 M0
SYMATTR InstName U4
SYMBOL res 1264 384 R90
WINDOW 0 0 56 VBottom 2
WINDOW 3 32 56 VTop 2
SYMATTR InstName R15
SYMATTR Value 636.6
SYMBOL cap 1072 432 R0
SYMATTR InstName C4
SYMATTR Value 1n
TEXT -528 488 Left 2 !.tran 10m
TEXT -520 752 Left 2 !.model MySwitch SW(Ron=1m Roff=1Meg Vt=0.5 Vh=-.1)
