Version 4
SHEET 1 1448 756
WIRE -128 -304 -496 -304
WIRE 576 -304 -128 -304
WIRE 576 -256 576 -304
WIRE 48 -144 -400 -144
WIRE 176 -144 48 -144
WIRE 576 -128 576 -176
WIRE 704 -112 624 -112
WIRE 704 -80 704 -112
WIRE 640 -64 624 -64
WIRE 640 -32 640 -64
WIRE 496 32 400 32
WIRE 576 32 576 -48
WIRE 576 32 496 32
WIRE 704 32 704 0
WIRE 400 64 400 32
WIRE 48 80 48 -144
WIRE 16 96 -32 96
WIRE 144 112 80 112
WIRE 224 112 144 112
WIRE 320 112 304 112
WIRE 336 112 320 112
WIRE -272 128 -304 128
WIRE -224 128 -272 128
WIRE 16 128 -144 128
WIRE -304 144 -304 128
WIRE 320 160 320 112
WIRE 48 176 48 144
WIRE -400 192 -400 -144
WIRE -496 240 -496 -304
WIRE -304 240 -304 224
WIRE -32 240 -32 96
WIRE 16 240 -32 240
WIRE 144 240 144 112
WIRE 144 240 80 240
WIRE -32 272 -32 240
WIRE 320 272 320 224
WIRE -400 288 -400 272
WIRE -496 352 -496 320
WIRE 176 352 176 -144
WIRE 288 368 208 368
WIRE -32 384 -32 352
WIRE 128 384 -32 384
WIRE 144 384 128 384
WIRE 336 400 208 400
WIRE 400 400 400 160
WIRE 400 400 336 400
WIRE 176 432 176 416
WIRE 400 448 400 400
WIRE 128 496 128 384
WIRE 160 496 128 496
WIRE 288 496 288 368
WIRE 288 496 240 496
WIRE 400 560 400 528
WIRE 128 592 128 496
WIRE 176 592 128 592
WIRE 288 592 288 496
WIRE 288 592 240 592
WIRE 288 640 288 592
WIRE 288 736 288 720
FLAG 400 560 0
FLAG 48 176 0
FLAG -496 352 0
FLAG -400 288 0
FLAG -304 240 0
FLAG 176 432 0
FLAG 288 736 0
FLAG 320 272 0
FLAG -128 -304 VCC
FLAG -272 128 REF
FLAG 336 400 SNS
FLAG 496 32 OUT
FLAG 640 -32 0
FLAG 704 32 0
FLAG 320 112 B
SYMBOL npn 336 64 R0
SYMATTR InstName Q1
SYMATTR Value ZTX1048A
SYMBOL res 384 432 R0
SYMATTR InstName R1
SYMATTR Value 0.01
SYMBOL Opamps\\OP777 48 48 R0
SYMATTR InstName U1
SYMBOL res 560 -272 R0
SYMATTR InstName R2
SYMATTR Value 0.1
SYMBOL res 320 96 R90
WINDOW 0 0 56 VBottom 2
WINDOW 3 32 56 VTop 2
SYMATTR InstName R3
SYMATTR Value 1k
SYMBOL voltage -496 224 R0
WINDOW 123 0 0 Left 0
WINDOW 39 0 0 Left 0
SYMATTR InstName V1
SYMATTR Value PWL(0 0 1m 5 5m 5 5.1m 7)
SYMBOL voltage -400 176 R0
WINDOW 123 0 0 Left 0
WINDOW 39 0 0 Left 0
SYMATTR InstName V2
SYMATTR Value 3.3
SYMBOL voltage -304 128 R0
WINDOW 123 0 0 Left 0
WINDOW 39 0 0 Left 0
SYMATTR InstName V3
SYMATTR Value PWL(0 0 1m 0 2m 0.1)
SYMBOL Opamps\\OP777 176 320 M0
SYMATTR InstName U2
SYMBOL res 272 624 R0
SYMATTR InstName R4
SYMATTR Value 20k
SYMBOL res 256 480 R90
WINDOW 0 0 56 VBottom 2
WINDOW 3 32 56 VTop 2
SYMATTR InstName R5
SYMATTR Value 180k
SYMBOL res -48 256 R0
SYMATTR InstName R6
SYMATTR Value 10k
SYMBOL cap 80 224 R90
WINDOW 0 0 32 VBottom 2
WINDOW 3 32 32 VTop 2
SYMATTR InstName C1
SYMATTR Value 1n
SYMBOL cap 304 160 R0
SYMATTR InstName C2
SYMATTR Value 100p
SYMBOL cap 240 576 R90
WINDOW 0 0 32 VBottom 2
WINDOW 3 32 32 VTop 2
SYMATTR InstName C3
SYMATTR Value 100p
SYMBOL sw 576 -32 R180
SYMATTR InstName S1
SYMATTR Value MySwitch
SYMBOL voltage 704 -96 R0
WINDOW 123 0 0 Left 0
WINDOW 39 0 0 Left 0
SYMATTR InstName V4
SYMATTR Value PWL(0 5 7m 5 7.001m 0 8m 0 8.000001m 5)
SYMBOL res -128 112 R90
WINDOW 0 0 56 VBottom 2
WINDOW 3 32 56 VTop 2
SYMATTR InstName R7
SYMATTR Value 1k
TEXT -530 488 Left 2 !.tran 10m
TEXT 592 152 Left 2 !.model MySwitch SW(Ron=.1 Roff=1Meg Vt=0.5 Vh=-.1)
