Version 4
SHEET 1 3200 948
WIRE 48 -224 -384 -224
WIRE 176 -224 48 -224
WIRE 192 -224 176 -224
WIRE 768 -224 192 -224
WIRE 48 -176 48 -224
WIRE 768 -160 768 -224
WIRE 176 -144 176 -224
WIRE 48 -64 48 -96
WIRE 96 -64 48 -64
WIRE 128 -64 96 -64
WIRE 176 -16 176 -48
WIRE 208 -16 176 -16
WIRE 304 -16 288 -16
WIRE 336 -16 304 -16
WIRE 400 -16 336 -16
WIRE 448 -16 400 -16
WIRE 832 -16 448 -16
WIRE 1776 -16 832 -16
WIRE 1968 -16 1776 -16
WIRE 2048 -16 1968 -16
WIRE 2352 -16 2144 -16
WIRE 2544 -16 2352 -16
WIRE 2624 -16 2544 -16
WIRE 2768 -16 2720 -16
WIRE 2896 -16 2768 -16
WIRE 2976 -16 2896 -16
WIRE 3120 -16 2976 -16
WIRE 176 0 176 -16
WIRE 448 16 448 -16
WIRE 1968 16 1968 -16
WIRE 2544 16 2544 -16
WIRE 1776 32 1776 -16
WIRE 2352 32 2352 -16
WIRE 832 48 832 -16
WIRE 896 48 832 48
WIRE 1424 48 1152 48
WIRE 1520 48 1424 48
WIRE 1584 48 1520 48
WIRE 1648 48 1584 48
WIRE 96 64 96 -64
WIRE 128 64 96 64
WIRE 304 64 304 -16
WIRE 304 64 224 64
WIRE 832 144 832 48
WIRE 896 144 832 144
WIRE 1776 160 1776 96
WIRE 1968 160 1968 96
WIRE 1968 160 1776 160
WIRE 2064 160 2064 32
WIRE 2064 160 1968 160
WIRE 2352 160 2352 96
WIRE 2544 160 2544 96
WIRE 2544 160 2352 160
WIRE 2640 160 2640 32
WIRE 2640 160 2544 160
WIRE 1264 240 1152 240
WIRE 1424 240 1424 48
WIRE 1424 240 1264 240
WIRE 1264 288 1264 240
WIRE 1424 304 1424 240
WIRE 48 336 48 -64
WIRE 2064 336 2064 160
WIRE 336 352 336 -16
WIRE 2976 352 2976 -16
WIRE 3120 352 3120 -16
WIRE -384 368 -384 -224
WIRE 2768 368 2768 -16
WIRE 1520 384 1520 48
WIRE 768 400 768 -80
WIRE 960 400 768 400
WIRE 1424 400 1424 368
WIRE 1424 400 960 400
WIRE 1488 400 1424 400
WIRE 1696 416 1552 416
WIRE 2016 416 1696 416
WIRE 448 432 448 96
WIRE 640 432 448 432
WIRE 960 432 640 432
WIRE 1488 432 960 432
WIRE 640 448 640 432
WIRE 768 448 768 400
WIRE 2640 496 2640 160
WIRE 48 512 48 400
WIRE 448 544 448 432
WIRE 1648 544 1648 48
WIRE 640 560 640 528
WIRE 960 560 640 560
WIRE 1616 560 960 560
WIRE 1760 576 1680 576
WIRE 2592 576 1760 576
WIRE 1424 592 1424 400
WIRE 1616 592 1424 592
WIRE 640 624 640 560
WIRE 2064 624 2064 432
WIRE 2640 624 2640 592
WIRE -384 736 -384 448
WIRE 48 736 48 576
WIRE 336 736 336 416
WIRE 448 736 448 608
WIRE 640 736 640 704
WIRE 768 736 768 528
WIRE 1024 736 1024 304
WIRE 1264 736 1264 352
WIRE 1520 736 1520 448
WIRE 1648 736 1648 608
WIRE 2064 736 2064 704
WIRE 2640 736 2640 704
WIRE 2768 736 2768 432
WIRE 2976 736 2976 432
WIRE 3120 736 3120 432
FLAG -384 736 0
FLAG 48 736 0
FLAG 2976 736 0
FLAG 192 -224 OUTPUT
FLAG 2896 -16 SUP_3V3
FLAG 640 736 0
FLAG 768 736 0
FLAG 1520 736 0
FLAG 1696 416 OVP
FLAG 960 432 OVP_REF
FLAG 960 400 VMEAS
FLAG 1648 736 0
FLAG 1760 576 UVLO
FLAG 960 560 UVLO_REF
FLAG 3120 736 0
FLAG 2768 736 0
FLAG 336 736 0
FLAG 448 736 0
FLAG 400 -16 PROT
FLAG 1584 48 VCC
FLAG 1024 736 0
FLAG 1264 736 0
FLAG 2064 736 0
FLAG 2640 736 0
SYMBOL voltage -384 352 R0
WINDOW 123 0 0 Left 0
WINDOW 39 0 0 Left 0
SYMATTR InstName V1
SYMATTR Value PWL(0 0 1m 0 7m 100 8m 600 9m 0 10m 600)
SYMBOL res 32 -192 R0
SYMATTR InstName R1
SYMATTR Value 1Meg
SYMBOL zener 32 400 M180
WINDOW 0 24 64 Left 2
WINDOW 3 24 0 Left 2
SYMATTR InstName D1
SYMATTR Value BZX84C36VL
SYMATTR Description Diode
SYMATTR Type diode
SYMBOL nmos 128 -144 R0
SYMATTR InstName M1
SYMATTR Value STW11NM80
SYMBOL res 624 432 R0
SYMATTR InstName R3
SYMATTR Value 100k
SYMBOL res 432 0 R0
SYMATTR InstName R2
SYMATTR Value 100k
SYMBOL res 2960 336 R0
SYMATTR InstName R7
SYMATTR Value 10k
SYMBOL res 752 432 R0
SYMATTR InstName R5
SYMATTR Value 100k
SYMBOL res 752 -176 R0
SYMATTR InstName R4
SYMATTR Value 1Meg
SYMBOL diode 1408 368 M180
WINDOW 0 24 64 Left 2
WINDOW 3 24 0 Left 2
SYMATTR InstName D3
SYMATTR Value 1N4148
SYMBOL res 624 608 R0
SYMATTR InstName R9
SYMATTR Value 5.2k
SYMBOL pmos 2144 32 M270
SYMATTR InstName M2
SYMATTR Value FDS4685
SYMBOL pmos 2720 32 M270
SYMATTR InstName M3
SYMATTR Value FDS4685
SYMBOL Comparators\\LT1018 1520 416 R0
SYMATTR InstName U1
SYMBOL Comparators\\LT1018 1648 576 R0
SYMATTR InstName U2
SYMBOL load2 3120 352 R0
WINDOW 123 0 0 Left 0
WINDOW 39 25 112 Left 2
SYMATTR SpiceLine load
SYMATTR InstName I1
SYMATTR Value .2
SYMBOL cap 2752 368 R0
SYMATTR InstName C1
SYMATTR Value 1µ
SYMATTR SpiceLine Rser=0.01
SYMBOL res 304 -32 R90
WINDOW 0 0 56 VBottom 2
WINDOW 3 32 56 VTop 2
SYMATTR InstName R6
SYMATTR Value 2
SYMBOL cap 320 352 R0
SYMATTR InstName C2
SYMATTR Value 1µ
SYMBOL zener 432 608 M180
WINDOW 0 24 64 Left 2
WINDOW 3 24 0 Left 2
SYMATTR InstName D2
SYMATTR Value BZX84C6V2L
SYMATTR Description Diode
SYMATTR Type diode
SYMBOL zener 32 576 M180
WINDOW 0 24 64 Left 2
WINDOW 3 24 0 Left 2
SYMATTR InstName D4
SYMATTR Value BZX84C27VL
SYMATTR Description Diode
SYMATTR Type diode
SYMBOL npn 128 0 M90
SYMATTR InstName Q1
SYMATTR Value BC846B
SYMBOL PowerProducts\\ADP7142-5.0 1024 144 R0
SYMATTR InstName U3
SYMBOL cap 1248 288 R0
SYMATTR InstName C3
SYMATTR Value 100n
SYMBOL nmos 2016 336 R0
SYMATTR InstName M4
SYMATTR Value BSS123
SYMBOL res 1952 0 R0
SYMATTR InstName R8
SYMATTR Value 10k
SYMBOL res 2528 0 R0
SYMATTR InstName R10
SYMATTR Value 10k
SYMBOL zener 1760 96 M180
WINDOW 0 24 64 Left 2
WINDOW 3 24 0 Left 2
SYMATTR InstName D5
SYMATTR Value BZX84C6V2L
SYMATTR Description Diode
SYMATTR Type diode
SYMBOL zener 2336 96 M180
WINDOW 0 24 64 Left 2
WINDOW 3 24 0 Left 2
SYMATTR InstName D6
SYMATTR Value BZX84C6V2L
SYMATTR Description Diode
SYMATTR Type diode
SYMBOL res 2048 608 R0
SYMATTR InstName R11
SYMATTR Value 470
SYMBOL res 2624 608 R0
SYMATTR InstName R12
SYMATTR Value 470
SYMBOL nmos 2592 496 R0
SYMATTR InstName M5
SYMATTR Value BSS123
TEXT -416 760 Left 2 !.tran 10m
