Version 4
SHEET 1 1740 680
WIRE 384 -16 -96 -16
WIRE 448 -16 384 -16
WIRE 640 -16 448 -16
WIRE 880 -16 640 -16
WIRE 992 -16 880 -16
WIRE 1072 -16 992 -16
WIRE 1168 -16 1072 -16
WIRE 1312 -16 1168 -16
WIRE 1488 -16 1312 -16
WIRE -96 16 -96 -16
WIRE 880 16 880 -16
WIRE 1072 16 1072 -16
WIRE 1168 16 1168 -16
WIRE 1488 32 1488 -16
WIRE 384 48 384 -16
WIRE 448 64 448 -16
WIRE -96 128 -96 96
WIRE 640 128 640 -16
WIRE 1072 128 1072 96
WIRE 1168 128 1168 96
WIRE 1168 128 1072 128
WIRE 608 144 576 144
WIRE 1312 144 1312 -16
WIRE 736 160 672 160
WIRE 1280 160 736 160
WIRE 144 176 64 176
WIRE 208 176 144 176
WIRE 256 176 208 176
WIRE 384 176 384 112
WIRE 384 176 336 176
WIRE 448 176 448 144
WIRE 448 176 384 176
WIRE 608 176 448 176
WIRE 992 176 992 -16
WIRE 1376 176 1344 176
WIRE 1488 176 1488 112
WIRE 1488 176 1440 176
WIRE 1616 176 1488 176
WIRE 1648 176 1616 176
WIRE 64 192 64 176
WIRE 144 192 144 176
WIRE 880 192 880 96
WIRE 944 192 880 192
WIRE 1168 192 1168 128
WIRE 1184 192 1168 192
WIRE 1280 192 1184 192
WIRE 1648 192 1648 176
WIRE 640 208 640 192
WIRE 1488 208 1488 176
WIRE 1312 224 1312 208
WIRE 880 240 880 192
WIRE 144 288 144 272
WIRE 256 288 144 288
WIRE 576 288 576 144
WIRE 576 288 336 288
WIRE 592 288 576 288
WIRE 736 288 736 160
WIRE 736 288 672 288
WIRE 64 304 64 272
WIRE 144 304 144 288
WIRE 448 304 448 176
WIRE 992 304 992 272
WIRE 1168 304 1168 192
WIRE 1168 304 992 304
WIRE 1248 304 1168 304
WIRE 1264 304 1248 304
WIRE 1360 304 1344 304
WIRE 1488 304 1488 272
WIRE 1488 304 1360 304
WIRE 1536 304 1488 304
WIRE 1648 304 1648 272
WIRE 1648 304 1600 304
WIRE 384 320 384 176
WIRE 1168 320 1168 304
WIRE 1248 400 1248 304
WIRE 1264 400 1248 400
WIRE 1360 400 1360 304
WIRE 1360 400 1344 400
WIRE 384 416 384 384
WIRE 448 416 448 384
WIRE 880 416 880 304
WIRE 1168 416 1168 400
FLAG 144 304 0
FLAG -96 128 0
FLAG 64 304 0
FLAG 384 416 0
FLAG 448 416 0
FLAG 640 208 0
FLAG 1312 224 0
FLAG 1168 416 0
FLAG 208 176 I_SHUNT
FLAG 736 160 I_OUT
FLAG 1616 176 CROWBAR_LATCH
FLAG 1184 192 CROWBAR_REF
FLAG 880 416 0
SYMBOL voltage -96 0 R0
WINDOW 123 0 0 Left 0
WINDOW 39 0 0 Left 0
SYMATTR InstName V1
SYMATTR Value PULSE(0 3.3 1m 1u 1u 100 200)
SYMBOL current 64 272 R180
WINDOW 123 0 0 Left 0
WINDOW 39 0 0 Left 0
SYMATTR InstName I1
SYMATTR Value PULSE(0 20 10m 10m 10m 10m 100m 2)
SYMBOL res 128 176 R0
SYMATTR InstName R1
SYMATTR Value 10m
SYMBOL res 352 160 R90
WINDOW 0 0 56 VBottom 2
WINDOW 3 32 56 VTop 2
SYMATTR InstName R2
SYMATTR Value 1k
SYMBOL res 352 272 R90
WINDOW 0 0 56 VBottom 2
WINDOW 3 32 56 VTop 2
SYMATTR InstName R3
SYMATTR Value 1k
SYMBOL diode 400 384 R180
WINDOW 0 24 64 Left 2
WINDOW 3 24 0 Left 2
SYMATTR InstName D1
SYMATTR Value BAV199HM
SYMBOL diode 400 112 R180
WINDOW 0 24 64 Left 2
WINDOW 3 24 0 Left 2
SYMATTR InstName D2
SYMATTR Value BAV199HM
SYMBOL res 432 48 R0
SYMATTR InstName R4
SYMATTR Value 200k
SYMBOL res 432 288 R0
SYMATTR InstName R5
SYMATTR Value 200k
SYMBOL TLV314 640 160 R0
SYMATTR InstName U1
SYMBOL res 688 272 R90
WINDOW 0 0 56 VBottom 2
WINDOW 3 32 56 VTop 2
SYMATTR InstName R6
SYMATTR Value 100k
SYMBOL TLV314 1312 176 R0
SYMATTR InstName U2
SYMBOL res 1152 0 R0
SYMATTR InstName R7
SYMATTR Value 10k
SYMBOL res 1152 304 R0
SYMATTR InstName R8
SYMATTR Value 10k
SYMBOL res 1360 288 R90
WINDOW 0 0 56 VBottom 2
WINDOW 3 32 56 VTop 2
SYMATTR InstName R9
SYMATTR Value 10k
SYMBOL diode 1504 272 R180
WINDOW 0 24 64 Left 2
WINDOW 3 24 0 Left 2
SYMATTR InstName D3
SYMATTR Value BAV199HM
SYMBOL res 1472 16 R0
SYMATTR InstName R10
SYMATTR Value 10k
SYMBOL res 1632 176 R0
SYMATTR InstName R11
SYMATTR Value 100k
SYMBOL diode 1600 288 R90
WINDOW 0 0 32 VBottom 2
WINDOW 3 32 32 VTop 2
SYMATTR InstName D4
SYMATTR Value BAV199HM
SYMBOL pmos 944 272 M180
SYMATTR InstName M1
SYMATTR Value BSS84
SYMBOL res 864 0 R0
SYMATTR InstName R12
SYMATTR Value 100k
SYMBOL cap 864 240 R0
SYMATTR InstName C1
SYMATTR Value 100n
SYMBOL res 1056 0 R0
SYMATTR InstName R13
SYMATTR Value 24k
SYMBOL diode 1440 160 R90
WINDOW 0 0 32 VBottom 2
WINDOW 3 32 32 VTop 2
SYMATTR InstName D5
SYMBOL res 1360 384 R90
WINDOW 0 0 56 VBottom 2
WINDOW 3 32 56 VTop 2
SYMATTR InstName R14
SYMATTR Value 2.4k
TEXT -418 440 Left 2 !.tran 200m
