Version 4
SHEET 1 1248 680
WIRE -416 -208 -416 -224
WIRE -416 -32 -416 -48
WIRE 128 16 80 16
WIRE 400 16 192 16
WIRE 704 16 400 16
WIRE 752 16 704 16
WIRE 784 16 752 16
WIRE 400 48 400 16
WIRE 784 48 784 16
WIRE 704 64 704 16
WIRE -400 112 -416 112
WIRE -32 112 -400 112
WIRE 80 112 80 16
WIRE 80 112 32 112
WIRE 80 160 80 112
WIRE 144 160 80 160
WIRE 256 160 208 160
WIRE 400 160 400 112
WIRE 400 160 336 160
WIRE 624 160 400 160
WIRE 704 160 704 128
WIRE 704 160 624 160
WIRE 784 160 784 128
WIRE 784 160 704 160
WIRE -416 176 -416 112
WIRE 784 176 784 160
WIRE -416 288 -416 256
WIRE 784 288 784 256
FLAG 784 288 0
FLAG -416 288 0
FLAG 624 160 DCLINK
FLAG 752 16 GATE
FLAG -400 112 GATEDRIVER
FLAG -416 -112 0
FLAG -416 64 0
FLAG -416 -224 PWM
FLAG -416 -48 EN
SYMBOL voltage -416 -224 R0
WINDOW 123 0 0 Left 0
WINDOW 39 0 0 Left 0
SYMATTR InstName V1
SYMATTR Value PULSE(0 8 10m 50n 50n 10u 20u)
SYMBOL voltage 784 160 R0
WINDOW 123 0 0 Left 0
WINDOW 39 0 0 Left 0
SYMATTR InstName V2
SYMATTR Value PULSE(0 6 100m 1m 1m 100m 200m)
SYMBOL res 768 32 R0
SYMATTR InstName R1
SYMATTR Value 1Meg
SYMBOL cap 688 64 R0
SYMATTR InstName C1
SYMATTR Value 100p
SYMBOL cap 32 96 R90
WINDOW 0 0 32 VBottom 2
WINDOW 3 32 32 VTop 2
SYMATTR InstName C2
SYMATTR Value 1n
SYMBOL res 352 144 R90
WINDOW 0 0 56 VBottom 2
WINDOW 3 32 56 VTop 2
SYMATTR InstName R2
SYMATTR Value 1
SYMBOL schottky 128 32 R270
WINDOW 0 32 32 VTop 2
WINDOW 3 0 32 VBottom 2
SYMATTR InstName D1
SYMATTR Value 1N5819
SYMATTR Description Diode
SYMATTR Type diode
SYMBOL cap 384 48 R0
SYMATTR InstName C3
SYMATTR Value 10n
SYMBOL schottky 208 144 R90
WINDOW 0 0 32 VBottom 2
WINDOW 3 32 32 VTop 2
SYMATTR InstName D2
SYMATTR Value 1N5819
SYMATTR Description Diode
SYMATTR Type diode
SYMBOL voltage -416 -48 R0
WINDOW 123 0 0 Left 0
WINDOW 39 0 0 Left 0
SYMATTR InstName V3
SYMATTR Value PULSE(0 1 10m 100n 100n 10m 20m)
SYMBOL bv -416 160 R0
SYMATTR InstName B1
SYMATTR Value V=V(EN)*V(PWM)
TEXT -450 328 Left 2 !.tran 500m
