Version 4.1
SHEET 1 1336 808
WIRE -256 32 -480 32
WIRE 16 32 -256 32
WIRE 448 32 16 32
WIRE 16 80 16 32
WIRE 448 128 448 32
WIRE 16 208 16 160
WIRE 144 208 16 208
WIRE 288 208 144 208
WIRE 400 208 288 208
WIRE 288 240 288 208
WIRE 288 320 288 304
WIRE 384 320 288 320
WIRE 448 320 448 224
WIRE 448 320 384 320
WIRE 448 336 448 320
WIRE 16 352 16 208
WIRE -480 448 -480 32
WIRE 16 448 16 416
WIRE 448 448 448 416
WIRE 448 448 16 448
WIRE 576 448 448 448
WIRE 672 448 576 448
WIRE 448 496 448 448
WIRE 672 496 672 448
WIRE 800 512 720 512
WIRE 880 512 800 512
WIRE 880 544 880 512
WIRE -480 560 -480 528
WIRE 752 560 720 560
WIRE 752 592 752 560
WIRE 448 624 448 576
WIRE 672 624 672 576
WIRE 880 656 880 624
WIRE 672 736 672 704
WIRE 880 768 880 736
FLAG -480 560 0
FLAG 448 624 0
FLAG 672 736 0
FLAG 752 592 0
FLAG 880 768 0
FLAG -256 32 HV
FLAG 576 448 OUT_HV
FLAG 800 512 CTRL
FLAG 144 208 Gate
FLAG 384 320 Source
SYMBOL nmos 400 128 R0
SYMATTR InstName M1
SYMATTR Value IXTP3N120
SYMBOL diode 32 416 R180
WINDOW 0 24 64 Left 2
WINDOW 3 24 0 Left 2
SYMATTR InstName D1
SYMATTR Value DI_DDZ9700
SYMATTR Prefix X
SYMBOL res 432 320 R0
SYMATTR InstName R1
SYMATTR Value 10k
SYMBOL res 0 64 R0
SYMATTR InstName R2
SYMATTR Value 50Meg
SYMBOL diode 304 304 R180
WINDOW 0 24 64 Left 2
WINDOW 3 24 0 Left 2
SYMATTR InstName D2
SYMATTR Value DI_DDZ9700
SYMATTR Prefix X
SYMBOL voltage -480 432 R0
WINDOW 123 0 0 Left 0
WINDOW 39 0 0 Left 0
SYMATTR InstName V1
SYMATTR Value PULSE(0 1000 0 90m 3m 3m 100m)
SYMBOL res 432 480 R0
SYMATTR InstName R3
SYMATTR Value 10Meg
SYMBOL sw 672 592 R180
SYMATTR InstName S1
SYMATTR Value MYSW
SYMBOL res 656 608 R0
SYMATTR InstName R4
SYMATTR Value 1k
SYMBOL voltage 880 528 R0
WINDOW 123 0 0 Left 0
WINDOW 39 0 0 Left 0
SYMATTR InstName V2
SYMATTR Value PULSE(0 1 99m 1m 1m 99m 200m 1)
SYMBOL voltage 880 640 R0
WINDOW 123 0 0 Left 0
WINDOW 39 0 0 Left 0
SYMATTR InstName V3
SYMATTR Value PULSE(0 1 200m 1n 1n 5u 5m)
TEXT -224 696 Left 2 !.model MYSW SW(Ron=1m Roff=100Meg Vt=.5 Vh=-.4)
TEXT -512 792 Left 2 !.tran 300m
TEXT -224 728 Left 2 !.LIB DDZ9700.spice.txt
TEXT -224 760 Left 2 !.LIB IXTP3N120.lib
