Version 4.1
SHEET 1 1176 808
WIRE -256 32 -480 32
WIRE 16 32 -256 32
WIRE 288 32 16 32
WIRE 16 80 16 32
WIRE 288 128 288 32
WIRE 16 208 16 160
WIRE 112 208 16 208
WIRE 208 208 112 208
WIRE 240 208 208 208
WIRE 208 240 208 208
WIRE 208 320 208 304
WIRE 256 320 208 320
WIRE 288 320 288 224
WIRE 288 320 256 320
WIRE 288 336 288 320
WIRE 16 352 16 208
WIRE -480 448 -480 32
WIRE 16 448 16 416
WIRE 288 448 288 416
WIRE 288 448 16 448
WIRE 416 448 288 448
WIRE 512 448 416 448
WIRE 288 496 288 448
WIRE 512 496 512 448
WIRE 640 512 560 512
WIRE 720 512 640 512
WIRE 720 544 720 512
WIRE -480 560 -480 528
WIRE 592 560 560 560
WIRE 592 592 592 560
WIRE 288 624 288 576
WIRE 512 624 512 576
WIRE 720 656 720 624
WIRE 512 736 512 704
WIRE 720 768 720 736
FLAG -480 560 0
FLAG 288 624 0
FLAG 512 736 0
FLAG 592 592 0
FLAG 720 768 0
FLAG -256 32 HV
FLAG 416 448 OUT_HV
FLAG 640 512 CTRL
FLAG 112 208 Gate
FLAG 256 320 Source
SYMBOL nmos 240 128 R0
SYMATTR InstName M1
SYMATTR Value STW11NM80
SYMBOL diode 32 416 R180
WINDOW 0 24 64 Left 2
WINDOW 3 24 0 Left 2
SYMATTR InstName D1
SYMATTR Value BZX84B13VLY
SYMBOL res 272 320 R0
SYMATTR InstName R1
SYMATTR Value 10k
SYMBOL res 0 64 R0
SYMATTR InstName R2
SYMATTR Value 10Meg
SYMBOL diode 224 304 R180
WINDOW 0 24 64 Left 2
WINDOW 3 24 0 Left 2
SYMATTR InstName D2
SYMATTR Value BZX84B13VLY
SYMBOL voltage -480 432 R0
WINDOW 123 0 0 Left 0
WINDOW 39 0 0 Left 0
SYMATTR InstName V1
SYMATTR Value PULSE(0 1000 0 90m 3m 3m 100m)
SYMBOL res 272 480 R0
SYMATTR InstName R3
SYMATTR Value 10Meg
SYMBOL sw 512 592 R180
SYMATTR InstName S1
SYMATTR Value MYSW
SYMBOL res 496 608 R0
SYMATTR InstName R4
SYMATTR Value 1k
SYMBOL voltage 720 528 R0
WINDOW 123 0 0 Left 0
WINDOW 39 0 0 Left 0
SYMATTR InstName V2
SYMATTR Value PULSE(0 1 99m 1m 1m 99m 200m 1)
SYMBOL voltage 720 640 R0
WINDOW 123 0 0 Left 0
WINDOW 39 0 0 Left 0
SYMATTR InstName V3
SYMATTR Value PULSE(0 1 200m 1n 1n 5u 10u)
TEXT -224 696 Left 2 !.model MYSW SW(Ron=1m Roff=100Meg Vt=.5 Vh=-.4)
TEXT -512 792 Left 2 !.tran 300m
