Version 4
SHEET 1 2568 680
WIRE 608 -400 144 -400
WIRE 1120 -400 608 -400
WIRE 1120 -368 1120 -400
WIRE 1120 -272 1120 -304
WIRE 144 -192 144 -400
WIRE 1120 -176 1120 -208
WIRE 144 -96 144 -112
WIRE 1120 -80 1120 -112
WIRE 1120 32 1120 -16
WIRE 368 80 304 80
WIRE 448 80 368 80
WIRE 880 80 528 80
WIRE 1056 80 880 80
WIRE 880 128 880 80
WIRE 304 144 304 80
WIRE 1120 144 1120 128
WIRE 1248 144 1120 144
WIRE 1120 160 1120 144
WIRE 1248 160 1248 144
WIRE 304 240 304 224
WIRE 880 240 880 192
WIRE 1120 272 1120 240
WIRE 1248 272 1248 240
WIRE 880 336 880 304
WIRE 1120 384 1120 352
FLAG 304 240 0
FLAG 144 -96 0
FLAG 1120 384 0
FLAG 880 336 0
FLAG 608 -400 VCC
FLAG 368 80 HV_DET
FLAG 1248 272 0
SYMBOL voltage 144 -208 R0
WINDOW 3 24 44 Invisible 2
WINDOW 123 0 0 Left 0
WINDOW 39 0 0 Left 0
SYMATTR Value PWL(0 8 49m 8 50m 8.5 99m 8.5 100m 9 149m 9 150m 9.5 199m 9.5 200m 10 249m 10 250m 11 299m 11 300m 12 349m 12 350m 13 399m 13 400m 14 449m 14 450m 15 499m 15)
SYMATTR InstName V1
SYMBOL voltage 304 128 R0
WINDOW 123 0 0 Left 0
WINDOW 39 0 0 Left 0
SYMATTR InstName V2
SYMATTR Value PULSE(0 3.3 0 100u 100u 2m 4m)
SYMBOL res 544 64 R90
WINDOW 0 0 56 VBottom 2
WINDOW 3 32 56 VTop 2
SYMATTR InstName R1
SYMATTR Value 2k
SYMBOL res 1136 256 R180
WINDOW 0 36 76 Left 2
WINDOW 3 36 40 Left 2
SYMATTR InstName R2
SYMATTR Value 0
SYMBOL load2 1120 272 R0
WINDOW 123 0 0 Left 0
WINDOW 39 25 112 Left 2
SYMATTR SpiceLine load
SYMATTR InstName I1
SYMATTR Value PULSE(100u 51m 0 40m 1m 9m 50m)
SYMBOL npn 1056 32 R0
SYMATTR InstName Q1
SYMATTR Value UMT3904
SYMBOL diode 864 128 R0
SYMATTR InstName D1
SYMATTR Value BAV199HM
SYMBOL diode 864 240 R0
SYMATTR InstName D2
SYMATTR Value BAV199HM
SYMBOL LED 1104 -368 R0
SYMATTR InstName D3
SYMATTR Value QTLP690C
SYMBOL LED 1104 -272 R0
SYMATTR InstName D4
SYMATTR Value QTLP690C
SYMBOL LED 1104 -176 R0
SYMATTR InstName D5
SYMATTR Value QTLP690C
SYMBOL LED 1104 -80 R0
SYMATTR InstName D6
SYMATTR Value QTLP690C
SYMBOL res 1232 144 R0
SYMATTR InstName R3
SYMATTR Value 360
TEXT 112 408 Left 2 !.tran 0.5
