Version 4
SHEET 1 880 680
WIRE 0 0 -64 0
WIRE 96 0 0 0
WIRE 224 0 176 0
WIRE 256 0 224 0
WIRE 256 16 256 0
WIRE -64 80 -64 0
WIRE 256 112 256 96
WIRE 416 112 256 112
WIRE 256 128 256 112
WIRE 416 208 416 112
WIRE -64 224 -64 160
WIRE 0 224 -64 224
WIRE 96 224 0 224
WIRE 224 224 176 224
WIRE 256 224 256 208
WIRE 256 224 224 224
WIRE -64 304 -64 224
WIRE -64 416 -64 384
FLAG -64 416 0
FLAG 416 208 0
FLAG 0 0 MEAS_P
FLAG 0 224 MEAS_N
FLAG 224 0 AMP_P
FLAG 224 224 AMP_N
SYMBOL voltage -64 64 R0
WINDOW 123 0 0 Left 0
WINDOW 39 0 0 Left 0
SYMATTR InstName V1
SYMATTR Value SINE(0 10 1k 0)
SYMBOL voltage -64 288 R0
WINDOW 123 0 0 Left 0
WINDOW 39 0 0 Left 0
SYMATTR InstName V2
SYMATTR Value SINE(0 1000 100 0)
SYMBOL res 192 -16 R90
WINDOW 0 0 56 VBottom 2
WINDOW 3 32 56 VTop 2
SYMATTR InstName R1
SYMATTR Value 10Meg
SYMBOL res 192 208 R90
WINDOW 0 0 56 VBottom 2
WINDOW 3 32 56 VTop 2
SYMATTR InstName R2
SYMATTR Value 10Meg
SYMBOL res 240 0 R0
SYMATTR InstName R3
SYMATTR Value 10.1k
SYMBOL res 240 112 R0
SYMATTR InstName R4
SYMATTR Value 10k
TEXT -98 440 Left 2 !.tran 0 10m 0 1u
