Version 4.1
SHEET 1 2392 680
WIRE 784 -32 272 -32
WIRE 928 -32 784 -32
WIRE 1104 -32 928 -32
WIRE 1312 -32 1104 -32
WIRE 1456 -32 1312 -32
WIRE 1632 -32 1456 -32
WIRE 1312 0 1312 -32
WIRE 272 16 272 -32
WIRE 784 16 784 -32
WIRE 1632 16 1632 -32
WIRE 1104 32 1104 -32
WIRE 272 128 272 96
WIRE 1456 128 1456 -32
WIRE 928 144 928 -32
WIRE 1312 144 1312 80
WIRE 1424 144 1312 144
WIRE 560 160 272 160
WIRE 896 160 560 160
WIRE 1520 160 1488 160
WIRE 1632 160 1632 96
WIRE 1632 160 1584 160
WIRE 1776 160 1632 160
WIRE 1792 160 1776 160
WIRE 272 176 272 160
WIRE 992 176 960 176
WIRE 1104 176 1104 112
WIRE 1104 176 1056 176
WIRE 1152 176 1104 176
WIRE 1200 176 1152 176
WIRE 1376 176 1280 176
WIRE 1424 176 1376 176
WIRE 784 192 784 96
WIRE 800 192 784 192
WIRE 896 192 800 192
WIRE 1456 208 1456 192
WIRE 928 224 928 208
WIRE 272 288 272 256
WIRE 1376 288 1376 176
WIRE 1408 288 1376 288
WIRE 1632 288 1632 160
WIRE 1632 288 1488 288
WIRE 784 304 784 192
WIRE 816 304 784 304
WIRE 880 304 816 304
WIRE 1104 304 1104 176
WIRE 1104 304 960 304
WIRE 1312 304 1312 144
WIRE 1632 304 1632 288
WIRE 816 320 816 304
WIRE 1104 336 1104 304
WIRE 1312 400 1312 384
WIRE 1632 400 1632 368
WIRE 816 416 816 400
WIRE 1104 432 1104 400
FLAG 272 128 0
FLAG 272 288 0
FLAG 928 224 0
FLAG 816 416 0
FLAG 1776 160 OCP
FLAG 800 192 OCP_REF
FLAG 560 160 I_ISO
FLAG 1456 208 0
FLAG 1312 400 0
FLAG 1104 432 0
FLAG 1152 176 COMP
FLAG 1632 400 0
SYMBOL voltage 272 0 R0
WINDOW 123 0 0 Left 0
WINDOW 39 0 0 Left 0
SYMATTR InstName V1
SYMATTR Value PULSE(0 3.3 1m 1u 1u 100 200)
SYMBOL TLV314 928 176 R0
SYMATTR InstName U2
SYMBOL res 768 0 R0
SYMATTR InstName R7
SYMATTR Value 200k
SYMBOL res 800 304 R0
SYMATTR InstName R8
SYMATTR Value 30k
SYMBOL res 976 288 R90
WINDOW 0 0 56 VBottom 2
WINDOW 3 32 56 VTop 2
SYMATTR InstName R9
SYMATTR Value 100k
SYMBOL res 1088 16 R0
SYMATTR InstName R10
SYMATTR Value 10k
SYMBOL diode 1056 160 R90
WINDOW 0 0 32 VBottom 2
WINDOW 3 32 32 VTop 2
SYMATTR InstName D5
SYMBOL voltage 272 160 R0
WINDOW 123 0 0 Left 0
WINDOW 39 0 0 Left 0
SYMATTR InstName V3
SYMATTR Value PULSE(0 2 35m 10m 10m 10m 100m 4)
SYMBOL TLV314 1456 160 R0
SYMATTR InstName U1
SYMBOL res 1296 -16 R0
SYMATTR InstName R1
SYMATTR Value 100k
SYMBOL res 1296 288 R0
SYMATTR InstName R2
SYMATTR Value 100k
SYMBOL res 1504 272 R90
WINDOW 0 0 56 VBottom 2
WINDOW 3 32 56 VTop 2
SYMATTR InstName R3
SYMATTR Value 1Meg
SYMBOL res 1616 0 R0
SYMATTR InstName R4
SYMATTR Value 10k
SYMBOL diode 1584 144 R90
WINDOW 0 0 32 VBottom 2
WINDOW 3 32 32 VTop 2
SYMATTR InstName D1
SYMBOL res 1296 160 R90
WINDOW 0 0 56 VBottom 2
WINDOW 3 32 56 VTop 2
SYMATTR InstName R5
SYMATTR Value 100k
SYMBOL cap 1088 336 R0
SYMATTR InstName C2
SYMATTR Value 1µ
SYMBOL cap 1616 304 R0
SYMATTR InstName C1
SYMATTR Value 100p
TEXT 272 360 Left 2 !.tran 200m
