Version 4
SHEET 1 2384 680
WIRE 1728 -1280 640 -1280
WIRE 48 -1136 -96 -1136
WIRE 768 -1136 48 -1136
WIRE 1040 -1136 768 -1136
WIRE 1120 -1136 1040 -1136
WIRE 1360 -1136 1120 -1136
WIRE 1440 -1136 1360 -1136
WIRE 1520 -1136 1440 -1136
WIRE 1728 -1136 1728 -1280
WIRE 1728 -1136 1616 -1136
WIRE 1808 -1136 1728 -1136
WIRE 1888 -1136 1808 -1136
WIRE 768 -1120 768 -1136
WIRE 640 -1104 640 -1280
WIRE 640 -1104 496 -1104
WIRE 1040 -1104 1040 -1136
WIRE 1440 -1088 1440 -1136
WIRE 496 -1072 496 -1104
WIRE 640 -1072 640 -1104
WIRE 1360 -1072 1360 -1136
WIRE 1888 -1040 1888 -1136
WIRE 1120 -1008 1120 -1136
WIRE 768 -992 768 -1040
WIRE 1040 -992 1040 -1040
WIRE 1040 -992 768 -992
WIRE 1072 -992 1040 -992
WIRE 80 -976 48 -976
WIRE 208 -976 144 -976
WIRE 544 -976 208 -976
WIRE 640 -976 640 -1008
WIRE 640 -976 544 -976
WIRE 688 -976 640 -976
WIRE 544 -960 544 -976
WIRE 688 -960 688 -976
WIRE 1888 -928 1888 -960
WIRE 768 -896 768 -992
WIRE 1120 -896 1120 -912
WIRE 1360 -896 1360 -1008
WIRE 1360 -896 1120 -896
WIRE 1440 -896 1440 -1008
WIRE 1440 -896 1360 -896
WIRE 1536 -896 1536 -1088
WIRE 1536 -896 1440 -896
WIRE 688 -864 688 -896
WIRE 640 -784 640 -976
WIRE 48 -768 48 -976
WIRE 144 -768 48 -768
WIRE 304 -768 224 -768
WIRE 320 -768 304 -768
WIRE 384 -768 320 -768
WIRE 608 -768 384 -768
WIRE 768 -752 768 -816
WIRE 768 -752 672 -752
WIRE 384 -736 384 -768
WIRE 496 -736 496 -992
WIRE 544 -736 544 -880
WIRE 544 -736 496 -736
WIRE 608 -736 544 -736
WIRE 496 -704 496 -736
WIRE 48 -688 48 -768
WIRE 80 -688 48 -688
WIRE 224 -688 160 -688
WIRE 320 -688 320 -768
WIRE 320 -688 288 -688
WIRE 640 -688 640 -720
WIRE 384 -640 384 -672
WIRE 496 -592 496 -624
WIRE 1536 -560 1536 -896
WIRE 48 -496 48 -688
WIRE 128 -496 48 -496
WIRE 384 -496 128 -496
WIRE 480 -496 384 -496
WIRE 624 -496 560 -496
WIRE 656 -496 624 -496
WIRE 688 -496 656 -496
WIRE 720 -496 688 -496
WIRE 688 -464 688 -496
WIRE 768 -448 768 -480
WIRE 384 -416 384 -496
WIRE 416 -416 384 -416
WIRE 560 -416 496 -416
WIRE 656 -416 656 -496
WIRE 656 -416 624 -416
WIRE 1536 -416 1536 -480
WIRE 1536 -416 1408 -416
WIRE 1408 -384 1408 -416
WIRE 688 -368 688 -400
WIRE 224 -304 176 -304
WIRE 608 -304 224 -304
WIRE 1360 -304 608 -304
WIRE 176 -256 176 -304
WIRE 224 -256 224 -304
WIRE 1408 -256 1408 -288
WIRE 1536 -224 1536 -416
WIRE 48 -144 48 -496
WIRE 96 -144 48 -144
WIRE 176 -144 176 -192
WIRE 224 -144 224 -176
WIRE 224 -144 176 -144
WIRE 576 -144 304 -144
WIRE 1488 -144 576 -144
WIRE 1536 -96 1536 -128
WIRE 48 -80 48 -144
WIRE 96 -80 96 -144
WIRE 304 16 304 -144
WIRE 48 48 48 -16
WIRE 96 48 96 0
WIRE 96 48 48 48
WIRE 176 80 176 -144
WIRE 304 128 304 96
WIRE 48 144 48 48
WIRE 176 192 176 160
WIRE -96 208 -96 -1136
WIRE 48 256 48 224
WIRE -96 320 -96 288
FLAG -96 320 0
FLAG 48 256 0
FLAG 176 192 0
FLAG 304 128 0
FLAG 1536 -96 0
FLAG 1408 -256 0
FLAG 768 -448 0
FLAG 1888 -928 0
FLAG 1808 -1136 VIN
FLAG 48 -1136 VBAT
FLAG 128 -496 BTN_OFF
FLAG 608 -304 BTN_ON
FLAG 576 -144 ON_REQ
FLAG 688 -368 0
FLAG 640 -688 0
FLAG 496 -592 0
FLAG 688 -864 0
FLAG 624 -496 TMR_MOS
FLAG 496 -736 THR
FLAG 208 -976 COMP_SUP
FLAG 384 -640 0
FLAG 304 -768 TMR_COMP
SYMBOL voltage -96 192 R0
WINDOW 123 0 0 Left 0
WINDOW 39 24 124 Left 2
SYMATTR InstName V1
SYMATTR Value PWL(0 0 1m 0 2m 10 10000m 10 20001m 18 30000m 18)
SYMATTR SpiceLine Rser=10m
SYMBOL voltage 48 128 R0
WINDOW 123 0 0 Left 0
WINDOW 39 24 124 Left 2
SYMATTR InstName V2
SYMATTR Value PWL(0 0 10m 0 11m 10 8000m 10 8001m 0 20010m 0 20011m 18 28000m 18 28001m 0)
SYMATTR SpiceLine Rser=10
SYMBOL voltage 176 64 R0
WINDOW 123 0 0 Left 0
WINDOW 39 24 124 Left 2
SYMATTR InstName V3
SYMATTR Value PWL(0 0 2m 0 3m 10 4m 10 5m 0 9000m 0 9001m 10 9002m 10 9003m 0 20002m 0 20003m 18 20004m 18 20005m 0 29000m 0 29001m 18 29002m 18 29003m 0)
SYMATTR SpiceLine Rser=10
SYMBOL voltage 304 0 R0
WINDOW 123 0 0 Left 0
WINDOW 39 24 124 Left 2
SYMATTR InstName V4
SYMATTR Value PWL(0 0 3m 0 4m 3.3 7500m 3.3 7501m 0 9001m 0 9002m 3.3 9903m 3.3 9904m 0 20003m 0 20004m 3.3 27500m 3.3 27501m 0 29001m 0 29002m 3.3 29903m 3.3 29904m 0)
SYMATTR SpiceLine Rser=10
SYMBOL nmos 1488 -224 R0
SYMATTR InstName M1
SYMATTR Value BSS123
SYMBOL nmos 1360 -384 R0
SYMATTR InstName M2
SYMATTR Value BSS123
SYMBOL nmos 720 -576 R0
SYMATTR InstName M3
SYMATTR Value BSS123
SYMBOL pmos 1072 -912 M180
SYMATTR InstName M4
SYMATTR Value BSS84
SYMBOL pmos 1616 -1088 M270
SYMATTR InstName M5
SYMATTR Value FDS4435A
SYMBOL res 1520 -576 R0
SYMATTR InstName R1
SYMATTR Value 10k
SYMBOL res 1424 -1104 R0
SYMATTR InstName R2
SYMATTR Value 100k
SYMBOL res 752 -1136 R0
SYMATTR InstName R3
SYMATTR Value 100k
SYMBOL res 752 -912 R0
SYMATTR InstName R4
SYMATTR Value 10k
SYMBOL res 576 -512 R90
WINDOW 0 0 56 VBottom 2
WINDOW 3 32 56 VTop 2
SYMATTR InstName R5
SYMATTR Value 10Meg
SYMBOL res 512 -432 R90
WINDOW 0 0 56 VBottom 2
WINDOW 3 32 56 VTop 2
SYMATTR InstName R6
SYMATTR Value 100k
SYMBOL zener 1376 -1008 R180
WINDOW 0 24 64 Left 2
WINDOW 3 24 0 Left 2
SYMATTR InstName D1
SYMATTR Value BZX84C15VL
SYMATTR Description Diode
SYMATTR Type diode
SYMBOL zener 1056 -1040 R180
WINDOW 0 24 64 Left 2
WINDOW 3 24 0 Left 2
SYMATTR InstName D2
SYMATTR Value BZX84C15VL
SYMATTR Description Diode
SYMATTR Type diode
SYMBOL diode 624 -432 R90
WINDOW 0 0 32 VBottom 2
WINDOW 3 32 32 VTop 2
SYMATTR InstName D3
SYMATTR Value 1N4148
SYMBOL res 1872 -1056 R0
SYMATTR InstName R7
SYMATTR Value 1k
SYMBOL cap 672 -464 R0
SYMATTR InstName C1
SYMATTR Value 3.3µ
SYMBOL diode 64 -16 R180
WINDOW 0 24 64 Left 2
WINDOW 3 24 0 Left 2
SYMATTR InstName D4
SYMATTR Value 1N4148
SYMBOL diode 192 -192 R180
WINDOW 0 24 64 Left 2
WINDOW 3 24 0 Left 2
SYMATTR InstName D5
SYMATTR Value 1N4148
SYMBOL res 80 -96 R0
SYMATTR InstName R8
SYMATTR Value 100k
SYMBOL res 208 -272 R0
SYMATTR InstName R9
SYMATTR Value 100k
SYMBOL Comparators\\LTC1841 640 -752 R0
SYMATTR InstName U1
SYMBOL diode 80 -960 R270
WINDOW 0 32 32 VTop 2
WINDOW 3 0 32 VBottom 2
SYMATTR InstName D6
SYMATTR Value 1N4148
SYMBOL diode 624 -1072 R0
SYMATTR InstName D7
SYMATTR Value 1N4148
SYMBOL res 528 -976 R0
SYMATTR InstName R10
SYMATTR Value 1Meg
SYMBOL res 480 -720 R0
SYMATTR InstName R11
SYMATTR Value 1Meg
SYMBOL cap 672 -960 R0
SYMATTR InstName C2
SYMATTR Value 1µ
SYMBOL res 480 -1088 R0
SYMATTR InstName R12
SYMATTR Value 10Meg
SYMBOL res 240 -784 R90
WINDOW 0 0 56 VBottom 2
WINDOW 3 32 56 VTop 2
SYMATTR InstName R13
SYMATTR Value 6.8Meg
SYMBOL res 176 -704 R90
WINDOW 0 0 56 VBottom 2
WINDOW 3 32 56 VTop 2
SYMATTR InstName R14
SYMATTR Value 100k
SYMBOL diode 288 -704 R90
WINDOW 0 0 32 VBottom 2
WINDOW 3 32 32 VTop 2
SYMATTR InstName D8
SYMATTR Value 1N4148
SYMBOL cap 368 -736 R0
SYMATTR InstName C3
SYMATTR Value 1µ
TEXT -130 344 Left 2 !.tran 30
