Version 4.1
SHEET 1 3236 728
WIRE 1008 -736 816 -736
WIRE 1424 -736 1056 -736
WIRE 816 -688 816 -736
WIRE 1424 -688 1424 -736
WIRE 1008 -560 816 -560
WIRE 1424 -560 1056 -560
WIRE 816 -512 816 -560
WIRE 1424 -512 1424 -560
WIRE 544 -480 -160 -480
WIRE 672 -480 544 -480
WIRE 544 -448 544 -480
WIRE 672 -432 672 -480
WIRE 1008 -384 816 -384
WIRE 1424 -384 1056 -384
WIRE 544 -352 544 -368
WIRE 672 -352 672 -368
WIRE 672 -352 544 -352
WIRE 816 -336 816 -384
WIRE 1424 -336 1424 -384
WIRE 1552 -304 1520 -304
WIRE 1696 -304 1616 -304
WIRE 1760 -304 1696 -304
WIRE 1808 -304 1760 -304
WIRE 1936 -304 1808 -304
WIRE 2064 -304 1936 -304
WIRE 16 -288 -48 -288
WIRE 576 -288 16 -288
WIRE 1008 -288 640 -288
WIRE 1520 -288 1520 -304
WIRE 1520 -288 1056 -288
WIRE 1696 -288 1696 -304
WIRE 1808 -288 1808 -304
WIRE 2064 -288 2064 -304
WIRE -48 -272 -48 -288
WIRE 672 -208 672 -352
WIRE 1008 -208 672 -208
WIRE 1696 -208 1696 -224
WIRE 1696 -208 1056 -208
WIRE 1936 -208 1936 -304
WIRE -160 -192 -160 -480
WIRE 1696 -192 1696 -208
WIRE -48 -160 -48 -192
WIRE 672 -160 672 -208
WIRE 672 -160 544 -160
WIRE 544 -144 544 -160
WIRE 672 -144 672 -160
WIRE 1520 -112 1520 -288
WIRE 1552 -112 1520 -112
WIRE 1696 -112 1696 -128
WIRE 1696 -112 1616 -112
WIRE 1808 -112 1808 -208
WIRE 1808 -112 1696 -112
WIRE 1936 -112 1936 -144
WIRE 1936 -112 1808 -112
WIRE 2064 -112 2064 -224
WIRE 2064 -112 1936 -112
WIRE 2064 -80 2064 -112
WIRE -160 -48 -160 -112
WIRE -48 -48 -48 -80
WIRE 544 -48 544 -64
WIRE 672 -48 672 -80
WIRE 1008 -32 816 -32
WIRE 1424 -32 1056 -32
WIRE 816 16 816 -32
WIRE 1424 16 1424 -32
WIRE -48 64 -48 32
WIRE 1008 144 816 144
WIRE 1424 144 1056 144
WIRE -48 176 -48 144
WIRE 816 192 816 144
WIRE 1424 192 1424 144
WIRE -48 272 -48 256
WIRE 1008 320 816 320
WIRE 1424 320 1056 320
WIRE 816 368 816 320
WIRE 1424 368 1424 320
FLAG 2064 -80 0
FLAG 1760 -304 V_ISO
FLAG -160 -48 0
FLAG 672 -48 0
FLAG 544 -48 0
FLAG -48 272 0
FLAG 816 16 0
FLAG 1424 16 0
FLAG 16 -288 SW
FLAG 816 -336 0
FLAG 1424 -336 0
FLAG 816 192 0
FLAG 1424 192 0
FLAG 816 -512 0
FLAG 1424 -512 0
FLAG 816 -688 0
FLAG 1424 -688 0
FLAG 816 368 0
FLAG 1424 368 0
SYMBOL res 1792 -304 R0
SYMATTR InstName R3
SYMATTR Value 10Meg
SYMBOL diode 1552 -288 R270
WINDOW 0 32 32 VTop 2
WINDOW 3 0 32 VBottom 2
SYMATTR InstName D4
SYMATTR Value BAT54
SYMBOL cap 1680 -288 R0
SYMATTR InstName C3
SYMATTR Value 100n
SYMBOL diode 1616 -128 R90
WINDOW 0 0 32 VBottom 2
WINDOW 3 32 32 VTop 2
SYMATTR InstName D5
SYMATTR Value BAT54
SYMBOL load 1920 -208 R0
WINDOW 123 0 0 Left 0
WINDOW 39 48 36 Left 2
SYMATTR SpiceLine load
SYMATTR InstName I1
SYMATTR Value PWL(0 0 51m 0 52m 1m 70m 100u 71m 0)
SYMBOL cap 1680 -192 R0
SYMATTR InstName C5
SYMATTR Value 100n
SYMBOL ind 992 -720 M180
WINDOW 0 -40 77 Left 2
WINDOW 3 -13 46 Right 2
SYMATTR InstName L1
SYMATTR Value 1.92m
SYMATTR Type ind
SYMATTR SpiceLine Rser=0.92
SYMBOL ind 1072 -720 R180
WINDOW 0 -36 78 Left 2
WINDOW 3 -10 46 Right 2
SYMATTR InstName L2
SYMATTR Value 2.016m
SYMATTR Type ind
SYMATTR SpiceLine Rser=0.87
SYMBOL voltage -160 -208 R0
WINDOW 123 0 0 Left 0
WINDOW 39 0 0 Left 0
SYMATTR InstName V1
SYMATTR Value 3.3
SYMBOL cap 640 -304 R90
WINDOW 0 0 32 VBottom 2
WINDOW 3 32 32 VTop 2
SYMATTR InstName C1
SYMATTR Value 10µ
SYMBOL voltage -48 -288 R0
WINDOW 123 0 0 Left 0
WINDOW 39 0 0 Left 0
SYMATTR InstName V2
SYMATTR Value PULSE(0 3.3 50m 10n 10n 16.7u 33.3u 6006)
SYMBOL cap 656 -432 R0
SYMATTR InstName C2
SYMATTR Value 10µ
SYMBOL cap 656 -144 R0
SYMATTR InstName C4
SYMATTR Value 10µ
SYMBOL res 528 -160 R0
SYMATTR InstName R1
SYMATTR Value 1Meg
SYMBOL res 528 -464 R0
SYMATTR InstName R2
SYMATTR Value 1Meg
SYMBOL ind 992 -544 M180
WINDOW 0 -40 77 Left 2
WINDOW 3 -18 43 Right 2
SYMATTR InstName L3
SYMATTR Value 3.8
SYMATTR Type ind
SYMATTR SpiceLine Rser=115
SYMBOL ind 1072 -544 R180
WINDOW 0 -36 78 Left 2
WINDOW 3 -11 46 Right 2
SYMATTR InstName L4
SYMATTR Value 3.8
SYMATTR Type ind
SYMATTR SpiceLine Rser=115
SYMBOL voltage -48 -176 R0
WINDOW 123 0 0 Left 0
WINDOW 39 0 0 Left 0
SYMATTR InstName V3
SYMATTR Value PULSE(0 3.3 250m 10n 10n 10u 20u 10000)
SYMBOL voltage -48 -64 R0
WINDOW 123 0 0 Left 0
WINDOW 39 0 0 Left 0
SYMATTR InstName V4
SYMATTR Value PULSE(0 3.3 450m 10n 10n 5u 10u 20000)
SYMBOL voltage -48 48 R0
WINDOW 123 0 0 Left 0
WINDOW 39 0 0 Left 0
SYMATTR InstName V5
SYMATTR Value PULSE(0 3.3 650m 10n 10n 2.5u 5u 40000)
SYMBOL voltage -48 160 R0
WINDOW 123 0 0 Left 0
WINDOW 39 0 0 Left 0
SYMATTR InstName V6
SYMATTR Value PULSE(0 3.3 850m 10n 10n 2u 4u 50000)
SYMBOL load 2048 -288 R0
WINDOW 123 0 0 Left 0
WINDOW 39 48 36 Left 2
SYMATTR SpiceLine load
SYMATTR InstName I2
SYMATTR Value PULSE(0 1m 100m 100m 1n 1n 200m)
SYMBOL ind 992 -368 M180
WINDOW 0 -40 77 Left 2
WINDOW 3 -18 47 Right 2
SYMATTR InstName L5
SYMATTR Value 3.2m
SYMATTR Type ind
SYMATTR SpiceLine Rser=2
SYMBOL ind 1072 -368 R180
WINDOW 0 -36 78 Left 2
WINDOW 3 -12 46 Right 2
SYMATTR InstName L6
SYMATTR Value 3.2m
SYMATTR Type ind
SYMATTR SpiceLine Rser=2
SYMBOL ind 992 -192 M180
WINDOW 0 -40 77 Left 2
WINDOW 3 -18 47 Right 2
SYMATTR InstName L7
SYMATTR Value 2m
SYMATTR Type ind
SYMATTR SpiceLine Rser=400m
SYMBOL ind 1072 -192 R180
WINDOW 0 -36 78 Left 2
WINDOW 3 -12 46 Right 2
SYMATTR InstName L8
SYMATTR Value 2.06m
SYMATTR Type ind
SYMATTR SpiceLine Rser=450m
TEXT 936 -704 Left 2 !K1 L1 L2 1
TEXT -192 400 Left 2 !.tran 1000m
TEXT 936 -528 Left 2 !K2 L3 L4 1
TEXT 936 -352 Left 2 !K3 L5 L6 1
TEXT 936 -680 Left 2 ;WE 750317829
TEXT 936 -504 Left 2 ;Bourns SM-LP-5001
TEXT 936 -328 Left 2 ;Murata DA103J
TEXT 936 -176 Left 2 !K4 L7 L8 1
TEXT 936 -152 Left 2 ;Maxinmicro MXPP8-30-1103
