Version 4.1
SHEET 1 1488 680
WIRE 448 -96 -16 -96
WIRE 592 -96 448 -96
WIRE 832 -96 592 -96
WIRE 1136 -96 896 -96
WIRE 1248 -96 1136 -96
WIRE -16 -32 -16 -96
WIRE -16 80 -16 48
WIRE 592 224 592 -96
WIRE 96 272 -16 272
WIRE 432 272 160 272
WIRE 512 272 432 272
WIRE 576 272 512 272
WIRE 736 272 672 272
WIRE 880 272 816 272
WIRE 1088 272 880 272
WIRE 1248 272 1248 -96
WIRE 1248 272 1088 272
WIRE -16 320 -16 272
WIRE 1248 400 1248 272
WIRE 1088 416 1088 272
WIRE -16 432 -16 400
WIRE 640 432 256 432
WIRE 752 432 752 320
WIRE 752 432 640 432
WIRE 800 432 800 320
WIRE 848 432 800 432
WIRE 848 464 848 432
WIRE 752 480 752 432
WIRE 800 480 800 432
WIRE 512 528 512 272
WIRE 560 528 512 528
WIRE 736 528 624 528
WIRE 880 528 880 272
WIRE 880 528 816 528
WIRE 1088 528 1088 480
WIRE 1248 528 1248 480
WIRE 256 544 256 432
WIRE 256 640 256 624
FLAG -16 432 0
FLAG -16 80 0
FLAG 1248 528 0
FLAG 448 -96 +3V3
FLAG 432 272 +3V3_STBY
FLAG 1136 -96 +3V3_OFF
FLAG 1088 528 0
FLAG 848 464 0
FLAG 256 640 0
FLAG 640 432 SW_CTRL
SYMBOL voltage -16 304 R0
WINDOW 123 0 0 Left 0
WINDOW 39 0 0 Left 0
SYMATTR InstName V1
SYMATTR Value PULSE(0 3.3 50m 10m 10m 200m 400m)
SYMBOL voltage -16 -48 R0
WINDOW 123 0 0 Left 0
WINDOW 39 0 0 Left 0
SYMATTR InstName V2
SYMATTR Value PULSE(0 3.3 100m 10m 10m 100m 200m)
SYMBOL diode 832 -80 R270
WINDOW 0 32 32 VTop 2
WINDOW 3 0 32 VBottom 2
SYMATTR InstName D1
SYMATTR Value BAT54
SYMBOL pmos 672 224 R90
SYMATTR InstName M1
SYMATTR Value BSS84
SYMBOL res 1232 384 R0
SYMATTR InstName R1
SYMATTR Value 2.2k
SYMBOL cap 1072 416 R0
SYMATTR InstName C1
SYMATTR Value 10µ
SYMBOL diode 96 288 R270
WINDOW 0 32 32 VTop 2
WINDOW 3 0 32 VBottom 2
SYMATTR InstName D2
SYMATTR Value 1N4148
SYMBOL diode 560 544 R270
WINDOW 0 32 32 VTop 2
WINDOW 3 0 32 VBottom 2
SYMATTR InstName D3
SYMATTR Value BAT54
SYMBOL sw 832 272 M270
SYMATTR InstName S1
SYMATTR Value MYSW
SYMBOL sw 720 528 M90
SYMATTR InstName S2
SYMATTR Value MYSW
SYMBOL voltage 256 528 R0
WINDOW 123 0 0 Left 0
WINDOW 39 0 0 Left 0
SYMATTR InstName V3
SYMATTR Value PULSE(1 -1 420m 1m 1m 399m 800m)
TEXT -48 536 Left 2 !.tran 1
TEXT 872 624 Left 2 !.model MYSW SW(Ron=1m Roff=1g Vt=0 Vh=0.1)
