Version 4.1
SHEET 1 2272 728
WIRE -240 -432 -288 -432
WIRE -176 -432 -240 -432
WIRE -80 -432 -112 -432
WIRE -32 -432 -80 -432
WIRE 416 -432 -32 -432
WIRE 608 -432 416 -432
WIRE 800 -432 608 -432
WIRE 976 -432 864 -432
WIRE 1024 -432 976 -432
WIRE -32 -304 -32 -432
WIRE 80 -304 -32 -304
WIRE 1168 -304 176 -304
WIRE 1200 -304 1168 -304
WIRE 1344 -304 1264 -304
WIRE 1408 -304 1344 -304
WIRE 1456 -304 1408 -304
WIRE 1584 -304 1456 -304
WIRE 1344 -288 1344 -304
WIRE 1456 -288 1456 -304
WIRE 1584 -288 1584 -304
WIRE 208 -272 176 -272
WIRE 208 -240 208 -272
WIRE 208 -240 176 -240
WIRE 80 -208 -32 -208
WIRE 1344 -208 1344 -224
WIRE 1344 -208 176 -208
WIRE 1344 -192 1344 -208
WIRE 1168 -112 1168 -304
WIRE 1200 -112 1168 -112
WIRE 1344 -112 1344 -128
WIRE 1344 -112 1264 -112
WIRE 1456 -112 1456 -208
WIRE 1456 -112 1344 -112
WIRE 1584 -112 1584 -224
WIRE 1584 -112 1456 -112
WIRE 1584 -80 1584 -112
WIRE -32 -32 -32 -208
WIRE 800 0 720 0
WIRE 1024 0 1024 -432
WIRE 1024 0 864 0
WIRE 608 48 608 -432
WIRE 720 48 720 0
WIRE -32 80 -32 48
WIRE 128 80 80 80
WIRE 416 80 416 -432
WIRE 416 80 352 80
WIRE 80 96 80 80
WIRE 128 144 80 144
WIRE 608 144 608 128
WIRE 608 144 352 144
WIRE 720 144 720 128
WIRE 720 144 608 144
WIRE 608 160 608 144
WIRE -32 208 -32 144
WIRE 128 208 -32 208
WIRE 512 208 352 208
WIRE 512 256 512 208
WIRE 608 256 608 240
WIRE 608 256 512 256
WIRE -80 272 -80 -432
WIRE 128 272 -80 272
WIRE 384 272 352 272
WIRE 608 272 608 256
WIRE 384 304 384 272
WIRE 1024 304 1024 0
WIRE -288 336 -288 -432
WIRE 608 352 608 336
WIRE 384 400 384 368
WIRE 80 448 80 144
WIRE 512 448 512 256
WIRE 512 448 80 448
WIRE 1024 464 1024 384
WIRE -288 496 -288 416
FLAG 80 96 0
FLAG 384 400 0
FLAG 608 352 0
FLAG 1024 464 0
FLAG -288 496 0
FLAG 1584 -80 0
FLAG -240 -432 V_STBY
FLAG 976 -432 3V3
FLAG 1408 -304 V_ISO
SYMBOL Misc\\NE555 240 176 R0
SYMATTR InstName U1
SYMBOL cap 368 304 R0
SYMATTR InstName C1
SYMATTR Value 10n
SYMBOL res 592 32 R0
SYMATTR InstName R1
SYMATTR Value 1Meg
SYMBOL res 592 144 R0
SYMATTR InstName R2
SYMATTR Value 470
SYMBOL cap 592 272 R0
SYMATTR InstName C2
SYMATTR Value 10n
SYMBOL voltage -288 320 R0
WINDOW 123 0 0 Left 0
WINDOW 39 0 0 Left 0
SYMATTR InstName V1
SYMATTR Value PULSE(0 3.3 100m 1m 1m 800m 1)
SYMBOL voltage 1024 288 R0
WINDOW 123 0 0 Left 0
WINDOW 39 0 0 Left 0
SYMATTR InstName V2
SYMATTR Value PULSE(0 3.3 500m 1m 1m 400m 1)
SYMBOL diode -176 -416 R270
WINDOW 0 32 32 VTop 2
WINDOW 3 0 32 VBottom 2
SYMATTR InstName D1
SYMATTR Value BAT54
SYMBOL diode 864 -16 R90
WINDOW 0 0 32 VBottom 2
WINDOW 3 32 32 VTop 2
SYMATTR InstName D2
SYMATTR Value BAT54
SYMBOL res 1440 -304 R0
SYMATTR InstName R3
SYMATTR Value 10Meg
SYMBOL res 704 32 R0
SYMATTR InstName R4
SYMATTR Value 10k
SYMBOL diode 864 -448 R90
WINDOW 0 0 32 VBottom 2
WINDOW 3 32 32 VTop 2
SYMATTR InstName D3
SYMATTR Value BAT54
SYMBOL Contrib\\Wurth\\Signal\\Transformer\\WE-STST 128 -256 R0
SYMATTR InstName T1
SYMATTR SpiceModel 4532_74930100_120uH
SYMBOL diode 1200 -288 R270
WINDOW 0 32 32 VTop 2
WINDOW 3 0 32 VBottom 2
SYMATTR InstName D4
SYMATTR Value BAT54
SYMBOL cap 1328 -288 R0
SYMATTR InstName C3
SYMATTR Value 100n
SYMBOL diode 1264 -128 R90
WINDOW 0 0 32 VBottom 2
WINDOW 3 32 32 VTop 2
SYMATTR InstName D5
SYMATTR Value BAT54
SYMBOL load 1568 -288 R0
WINDOW 123 0 0 Left 0
WINDOW 39 48 36 Left 2
SYMATTR SpiceLine load
SYMATTR InstName I1
SYMATTR Value PWL(0 0 150m 0 500m 10u 500.1m 0 550m 0 900m 1m)
SYMBOL res -48 -48 R0
SYMATTR InstName R5
SYMATTR Value 33
SYMBOL cap -48 80 R0
SYMATTR InstName C4
SYMATTR Value 10µ
SYMBOL cap 1328 -192 R0
SYMATTR InstName C5
SYMATTR Value 100n
TEXT -232 496 Left 2 !.tran 1.1
